PCB_Project
*SPICE Netlist generated by Advanced Sim server on 4/12/2018 3:16:28 PM

*Schematic Netlist:

.SAVE 0


*Selected Circuit Analyses:
.TRAN 2E-8 5E-6 0 2E-8
.OP

.END
